
OS:Version,
  {f69ef204-1c3b-4d72-813b-53f6ccf2a9ad}, !- Handle
  3.7.0;                                  !- Version Identifier

OS:SpaceType,
  {9e04e685-8173-4da5-843f-cbcfc36c6814}, !- Handle
  SecondarySchool Auditorium - 90.1-2019, !- Name
  ,                                       !- Default Construction Set Name
  {d58fbe24-e4c2-4d25-99a6-ca24377d3945}, !- Default Schedule Set Name
  {62d42db9-f756-464f-bb6d-7631f1a4a181}, !- Group Rendering Name
  {00464c71-41ae-4e17-93c5-9715363948b7}, !- Design Specification Outdoor Air Object Name
  ,                                       !- Standards Template
  SecondarySchool,                        !- Standards Building Type
  Auditorium;                             !- Standards Space Type

OS:People:Definition,
  {f436eee2-1b27-4659-9bcf-213ab3f961ce}, !- Handle
  SecondarySchool Auditorium People Definition, !- Name
  People/Area,                            !- Number of People Calculation Method
  ,                                       !- Number of People {people}
  1.61458656250646,                       !- People per Space Floor Area {person/m2}
  ,                                       !- Space Floor Area per Person {m2/person}
  0.3;                                    !- Fraction Radiant

OS:People,
  {92e7d085-cf37-4e36-a2a8-49ca49f009ac}, !- Handle
  SecondarySchool Auditorium People,      !- Name
  {f436eee2-1b27-4659-9bcf-213ab3f961ce}, !- People Definition Name
  {9e04e685-8173-4da5-843f-cbcfc36c6814}, !- Space or SpaceType Name
  ,                                       !- Number of People Schedule Name
  ,                                       !- Activity Level Schedule Name
  ,                                       !- Surface Name/Angle Factor List Name
  {a1660d56-93c0-42e4-ae0f-68b1163bbe37}, !- Work Efficiency Schedule Name
  {e819dc91-065e-4368-8883-aa35e58f7563}, !- Clothing Insulation Schedule Name
  {57cfcc9b-4af1-4ff0-80bd-c2203c6c48b3}, !- Air Velocity Schedule Name
  1;                                      !- Multiplier

OS:Schedule:Ruleset,
  {e819dc91-065e-4368-8883-aa35e58f7563}, !- Handle
  Clothing Schedule,                      !- Name
  {813e9da6-3332-4419-ba0b-441d40674187}, !- Schedule Type Limits Name
  {f61cde25-6cc1-4294-8ae6-b24f212600b5}; !- Default Day Schedule Name

OS:Schedule:Day,
  {f61cde25-6cc1-4294-8ae6-b24f212600b5}, !- Handle
  Clothing Schedule Default Winter Clothes, !- Name
  {813e9da6-3332-4419-ba0b-441d40674187}, !- Schedule Type Limits Name
  ,                                       !- Interpolate to Timestep
  24,                                     !- Hour 1
  0,                                      !- Minute 1
  1;                                      !- Value Until Time 1

OS:Schedule:Rule,
  {1dd90c09-2c45-4187-ac11-62ba3bf4622d}, !- Handle
  Schedule Rule 1,                        !- Name
  {e819dc91-065e-4368-8883-aa35e58f7563}, !- Schedule Ruleset Name
  0,                                      !- Rule Order
  {7ba7c224-7b2d-4365-92db-a93205ddbd87}, !- Day Schedule Name
  ,                                       !- Apply Sunday
  ,                                       !- Apply Monday
  ,                                       !- Apply Tuesday
  ,                                       !- Apply Wednesday
  ,                                       !- Apply Thursday
  ,                                       !- Apply Friday
  ,                                       !- Apply Saturday
  DateRange,                              !- Date Specification Type
  5,                                      !- Start Month
  1,                                      !- Start Day
  9,                                      !- End Month
  30;                                     !- End Day

OS:Schedule:Day,
  {7ba7c224-7b2d-4365-92db-a93205ddbd87}, !- Handle
  Clothing Schedule Summer Clothes,       !- Name
  {813e9da6-3332-4419-ba0b-441d40674187}, !- Schedule Type Limits Name
  ,                                       !- Interpolate to Timestep
  24,                                     !- Hour 1
  0,                                      !- Minute 1
  0.5;                                    !- Value Until Time 1

OS:ScheduleTypeLimits,
  {813e9da6-3332-4419-ba0b-441d40674187}, !- Handle
  ClothingInsulation,                     !- Name
  0,                                      !- Lower Limit Value
  ,                                       !- Upper Limit Value
  Continuous,                             !- Numeric Type
  ClothingInsulation;                     !- Unit Type

OS:Schedule:Ruleset,
  {57cfcc9b-4af1-4ff0-80bd-c2203c6c48b3}, !- Handle
  Air Velocity Schedule,                  !- Name
  {2975b03c-957f-4a90-a6cb-4bfa6b2a744e}, !- Schedule Type Limits Name
  {0eba21f1-3a12-4c76-bfd8-9c5b73d46d77}; !- Default Day Schedule Name

OS:Schedule:Day,
  {0eba21f1-3a12-4c76-bfd8-9c5b73d46d77}, !- Handle
  Air Velocity Schedule Default,          !- Name
  {2975b03c-957f-4a90-a6cb-4bfa6b2a744e}, !- Schedule Type Limits Name
  ,                                       !- Interpolate to Timestep
  24,                                     !- Hour 1
  0,                                      !- Minute 1
  0.2;                                    !- Value Until Time 1

OS:ScheduleTypeLimits,
  {2975b03c-957f-4a90-a6cb-4bfa6b2a744e}, !- Handle
  Velocity,                               !- Name
  0,                                      !- Lower Limit Value
  ,                                       !- Upper Limit Value
  Continuous,                             !- Numeric Type
  Velocity;                               !- Unit Type

OS:Schedule:Ruleset,
  {a1660d56-93c0-42e4-ae0f-68b1163bbe37}, !- Handle
  Work Efficiency Schedule,               !- Name
  {8eeaf701-6cf8-4a97-aabd-b3810bd8cb29}, !- Schedule Type Limits Name
  {0a1cea87-97ae-4746-8dad-998f6752397e}; !- Default Day Schedule Name

OS:Schedule:Day,
  {0a1cea87-97ae-4746-8dad-998f6752397e}, !- Handle
  Work Efficiency Schedule Default,       !- Name
  {8eeaf701-6cf8-4a97-aabd-b3810bd8cb29}, !- Schedule Type Limits Name
  ,                                       !- Interpolate to Timestep
  24,                                     !- Hour 1
  0,                                      !- Minute 1
  0;                                      !- Value Until Time 1

OS:ScheduleTypeLimits,
  {8eeaf701-6cf8-4a97-aabd-b3810bd8cb29}, !- Handle
  Fractional,                             !- Name
  0,                                      !- Lower Limit Value
  1,                                      !- Upper Limit Value
  Continuous;                             !- Numeric Type

OS:Lights:Definition,
  {10f39094-54a5-4b6b-83b8-a67e06a13cdf}, !- Handle
  SecondarySchool Auditorium Lights Definition, !- Name
  Watts/Area,                             !- Design Level Calculation Method
  ,                                       !- Lighting Level {W}
  6.56598535419293,                       !- Watts per Space Floor Area {W/m2}
  ,                                       !- Watts per Person {W/person}
  0.37,                                   !- Fraction Radiant
  0.2,                                    !- Fraction Visible
  0;                                      !- Return Air Fraction

OS:Lights,
  {e3e64964-efae-4f82-9388-01aedd878a2f}, !- Handle
  SecondarySchool Auditorium Lights,      !- Name
  {10f39094-54a5-4b6b-83b8-a67e06a13cdf}, !- Lights Definition Name
  {9e04e685-8173-4da5-843f-cbcfc36c6814}, !- Space or SpaceType Name
  ,                                       !- Schedule Name
  1,                                      !- Fraction Replaceable
  ,                                       !- Multiplier
  General;                                !- End-Use Subcategory

OS:AdditionalProperties,
  {a2a2e2c4-9a1f-4912-844c-ff60722e96ca}, !- Handle
  {10f39094-54a5-4b6b-83b8-a67e06a13cdf}, !- Object Name
  lpd_fraction_linear_fluorescent,        !- Feature Name 1
  Double,                                 !- Feature Data Type 1
  1;                                      !- Feature Value 1

OS:ElectricEquipment:Definition,
  {04134c7f-b550-4014-99bd-0d5640f39b9d}, !- Handle
  SecondarySchool Auditorium Elec Equip Definition, !- Name
  Watts/Area,                             !- Design Level Calculation Method
  ,                                       !- Design Level {W}
  4.95139879168647,                       !- Watts per Space Floor Area {W/m2}
  ,                                       !- Watts per Person {W/person}
  0,                                      !- Fraction Latent
  0.5,                                    !- Fraction Radiant
  0;                                      !- Fraction Lost

OS:ElectricEquipment,
  {05c7eb6c-4a71-4f12-95dc-4a829f18f1d3}, !- Handle
  SecondarySchool Auditorium Elec Equip,  !- Name
  {04134c7f-b550-4014-99bd-0d5640f39b9d}, !- Electric Equipment Definition Name
  {9e04e685-8173-4da5-843f-cbcfc36c6814}, !- Space or SpaceType Name
  ,                                       !- Schedule Name
  ,                                       !- Multiplier
  General;                                !- End-Use Subcategory

OS:DesignSpecification:OutdoorAir,
  {00464c71-41ae-4e17-93c5-9715363948b7}, !- Handle
  SecondarySchool Auditorium Ventilation, !- Name
  Sum,                                    !- Outdoor Air Method
  0.002359737216,                         !- Outdoor Air Flow per Person {m3/s-person}
  0.0003048,                              !- Outdoor Air Flow per Floor Area {m3/s-m2}
  ,                                       !- Outdoor Air Flow Rate {m3/s}
  ,                                       !- Outdoor Air Flow Air Changes per Hour {1/hr}
  ;                                       !- Outdoor Air Flow Rate Fraction Schedule Name

OS:ClimateZones,
  {31bcfb3c-7d43-43bc-8514-311a36f58573}, !- Handle
  ASHRAE,                                 !- Climate Zone Institution Name 1
  ANSI/ASHRAE Standard 169,               !- Climate Zone Document Name 1
  2006,                                   !- Climate Zone Document Year 1
  5A;                                     !- Climate Zone Value 1

OS:Building,
  {640040c7-1e72-4036-8e4f-dcf576d8b6e9}, !- Handle
  SecondarySchool 90.1-2019 5A,           !- Name
  ,                                       !- Building Sector Type
  ,                                       !- North Axis {deg}
  ,                                       !- Nominal Floor to Floor Height {m}
  {50b2b7f8-014d-4a3b-9da3-73e341dfa0f8}, !- Space Type Name
  {0dbd19db-7423-4483-90a9-9f15b4ab82d4}, !- Default Construction Set Name
  ,                                       !- Default Schedule Set Name
  ,                                       !- Standards Number of Stories
  ,                                       !- Standards Number of Above Ground Stories
  ,                                       !- Standards Template
  SecondarySchool;                        !- Standards Building Type

OS:SpaceInfiltration:DesignFlowRate,
  {ea225caa-eb23-4601-88d7-bf7254d172b6}, !- Handle
  SecondarySchool Auditorium Infiltration, !- Name
  {9e04e685-8173-4da5-843f-cbcfc36c6814}, !- Space or SpaceType Name
  ,                                       !- Schedule Name
  Flow/ExteriorArea,                      !- Design Flow Rate Calculation Method
  ,                                       !- Design Flow Rate {m3/s}
  ,                                       !- Flow per Space Floor Area {m3/s-m2}
  0.000226568,                            !- Flow per Exterior Surface Area {m3/s-m2}
  ,                                       !- Air Changes per Hour {1/hr}
  ,                                       !- Constant Term Coefficient
  ,                                       !- Temperature Term Coefficient
  ,                                       !- Velocity Term Coefficient
  ;                                       !- Velocity Squared Term Coefficient

OS:DefaultScheduleSet,
  {d58fbe24-e4c2-4d25-99a6-ca24377d3945}, !- Handle
  SecondarySchool Auditorium Schedule Set, !- Name
  ,                                       !- Hours of Operation Schedule Name
  {9c797de9-4523-4db5-964a-d6836923ff7a}, !- Number of People Schedule Name
  {eb0b36a0-7a21-4b7d-a70c-d92e77c97f75}, !- People Activity Level Schedule Name
  {ea98462a-b323-41af-854a-64d2044b61f0}, !- Lighting Schedule Name
  {206a0658-e43b-41eb-958a-d69a466887f8}, !- Electric Equipment Schedule Name
  ,                                       !- Gas Equipment Schedule Name
  ,                                       !- Hot Water Equipment Schedule Name
  {7a3ec9a0-ed51-4fe8-a86b-7c7f17cb7a02}, !- Infiltration Schedule Name
  ,                                       !- Steam Equipment Schedule Name
  ;                                       !- Other Equipment Schedule Name

OS:Schedule:Ruleset,
  {9c797de9-4523-4db5-964a-d6836923ff7a}, !- Handle
  SchoolSecondary BLDG_OCC_SCH_Auditorium, !- Name
  {8eeaf701-6cf8-4a97-aabd-b3810bd8cb29}, !- Schedule Type Limits Name
  {a1056007-c6da-41a8-9b54-f2bf69113a11}, !- Default Day Schedule Name
  {5dd275d1-0c61-4a68-98d7-7290bcd490c7}, !- Summer Design Day Schedule Name
  {dc1644d5-9be5-4daa-9b84-38026852794a}; !- Winter Design Day Schedule Name

OS:Schedule:Day,
  {a1056007-c6da-41a8-9b54-f2bf69113a11}, !- Handle
  SchoolSecondary BLDG_OCC_SCH_Auditorium Default, !- Name
  {8eeaf701-6cf8-4a97-aabd-b3810bd8cb29}, !- Schedule Type Limits Name
  ,                                       !- Interpolate to Timestep
  24,                                     !- Hour 1
  0,                                      !- Minute 1
  0;                                      !- Value Until Time 1

OS:Schedule:Day,
  {d302f7bd-6da2-4640-af29-abcdc979f539}, !- Handle
  Schedule Day 1,                         !- Name
  ,                                       !- Schedule Type Limits Name
  ,                                       !- Interpolate to Timestep
  24,                                     !- Hour 1
  0,                                      !- Minute 1
  0;                                      !- Value Until Time 1

OS:Schedule:Day,
  {dc1644d5-9be5-4daa-9b84-38026852794a}, !- Handle
  SchoolSecondary BLDG_OCC_SCH_Auditorium Winter Design Day, !- Name
  {8eeaf701-6cf8-4a97-aabd-b3810bd8cb29}, !- Schedule Type Limits Name
  ,                                       !- Interpolate to Timestep
  24,                                     !- Hour 1
  0,                                      !- Minute 1
  0;                                      !- Value Until Time 1

OS:Schedule:Day,
  {33433976-3d4a-4a3f-929f-e816d6fa9bd0}, !- Handle
  Schedule Day 2,                         !- Name
  ,                                       !- Schedule Type Limits Name
  ,                                       !- Interpolate to Timestep
  24,                                     !- Hour 1
  0,                                      !- Minute 1
  0;                                      !- Value Until Time 1

OS:Schedule:Day,
  {0056f459-ca4a-4be6-84ae-f8bf47120500}, !- Handle
  Schedule Day 3,                         !- Name
  ,                                       !- Schedule Type Limits Name
  ,                                       !- Interpolate to Timestep
  24,                                     !- Hour 1
  0,                                      !- Minute 1
  0;                                      !- Value Until Time 1

OS:Schedule:Rule,
  {263f4e7e-8d00-426c-88b9-9c5a223432bc}, !- Handle
  Schedule Rule 2,                        !- Name
  {9c797de9-4523-4db5-964a-d6836923ff7a}, !- Schedule Ruleset Name
  4,                                      !- Rule Order
  {f84b7939-8a2e-4670-a5cb-efc187079a88}, !- Day Schedule Name
  ,                                       !- Apply Sunday
  Yes,                                    !- Apply Monday
  Yes,                                    !- Apply Tuesday
  Yes,                                    !- Apply Wednesday
  Yes,                                    !- Apply Thursday
  Yes,                                    !- Apply Friday
  ,                                       !- Apply Saturday
  DateRange,                              !- Date Specification Type
  1,                                      !- Start Month
  1,                                      !- Start Day
  6,                                      !- End Month
  30;                                     !- End Day

OS:Schedule:Day,
  {f84b7939-8a2e-4670-a5cb-efc187079a88}, !- Handle
  SchoolSecondary BLDG_OCC_SCH_Auditorium Wkdy|SmrDsn Day, !- Name
  {8eeaf701-6cf8-4a97-aabd-b3810bd8cb29}, !- Schedule Type Limits Name
  ,                                       !- Interpolate to Timestep
  8,                                      !- Hour 1
  0,                                      !- Minute 1
  0,                                      !- Value Until Time 1
  15,                                     !- Hour 2
  0,                                      !- Minute 2
  0.25,                                   !- Value Until Time 2
  20,                                     !- Hour 3
  0,                                      !- Minute 3
  0.95,                                   !- Value Until Time 3
  24,                                     !- Hour 4
  0,                                      !- Minute 4
  0;                                      !- Value Until Time 4

OS:Schedule:Day,
  {721df052-4757-4a2d-91df-b7f0bfa02ea1}, !- Handle
  Schedule Day 4,                         !- Name
  ,                                       !- Schedule Type Limits Name
  ,                                       !- Interpolate to Timestep
  24,                                     !- Hour 1
  0,                                      !- Minute 1
  0;                                      !- Value Until Time 1

OS:Schedule:Rule,
  {f746fe67-58ee-4099-b8e9-cd8e3869095c}, !- Handle
  Schedule Rule 3,                        !- Name
  {9c797de9-4523-4db5-964a-d6836923ff7a}, !- Schedule Ruleset Name
  3,                                      !- Rule Order
  {136ebded-fd46-4b57-94b7-211236c7a21c}, !- Day Schedule Name
  ,                                       !- Apply Sunday
  Yes,                                    !- Apply Monday
  Yes,                                    !- Apply Tuesday
  Yes,                                    !- Apply Wednesday
  Yes,                                    !- Apply Thursday
  Yes,                                    !- Apply Friday
  ,                                       !- Apply Saturday
  DateRange,                              !- Date Specification Type
  7,                                      !- Start Month
  1,                                      !- Start Day
  9,                                      !- End Month
  1;                                      !- End Day

OS:Schedule:Day,
  {136ebded-fd46-4b57-94b7-211236c7a21c}, !- Handle
  SchoolSecondary BLDG_OCC_SCH_Auditorium Wkdy|SmrDsn Day 1, !- Name
  {8eeaf701-6cf8-4a97-aabd-b3810bd8cb29}, !- Schedule Type Limits Name
  ,                                       !- Interpolate to Timestep
  8,                                      !- Hour 1
  0,                                      !- Minute 1
  0,                                      !- Value Until Time 1
  17,                                     !- Hour 2
  0,                                      !- Minute 2
  0.15,                                   !- Value Until Time 2
  19,                                     !- Hour 3
  0,                                      !- Minute 3
  0.35,                                   !- Value Until Time 3
  24,                                     !- Hour 4
  0,                                      !- Minute 4
  0;                                      !- Value Until Time 4

OS:Schedule:Day,
  {5eecd976-7a5e-4f79-9dd6-8b66d4f0b633}, !- Handle
  Schedule Day 5,                         !- Name
  ,                                       !- Schedule Type Limits Name
  ,                                       !- Interpolate to Timestep
  24,                                     !- Hour 1
  0,                                      !- Minute 1
  0;                                      !- Value Until Time 1

OS:Schedule:Day,
  {5dd275d1-0c61-4a68-98d7-7290bcd490c7}, !- Handle
  SchoolSecondary BLDG_OCC_SCH_Auditorium Summer Design Day, !- Name
  {8eeaf701-6cf8-4a97-aabd-b3810bd8cb29}, !- Schedule Type Limits Name
  ,                                       !- Interpolate to Timestep
  8,                                      !- Hour 1
  0,                                      !- Minute 1
  0,                                      !- Value Until Time 1
  15,                                     !- Hour 2
  0,                                      !- Minute 2
  0.25,                                   !- Value Until Time 2
  20,                                     !- Hour 3
  0,                                      !- Minute 3
  0.95,                                   !- Value Until Time 3
  24,                                     !- Hour 4
  0,                                      !- Minute 4
  0;                                      !- Value Until Time 4

OS:Schedule:Rule,
  {b0efb132-c591-4c08-9c5b-b2ba8f2e6801}, !- Handle
  Schedule Rule 4,                        !- Name
  {9c797de9-4523-4db5-964a-d6836923ff7a}, !- Schedule Ruleset Name
  2,                                      !- Rule Order
  {f8c871ad-6efa-448f-8a1d-17035bd1f998}, !- Day Schedule Name
  ,                                       !- Apply Sunday
  Yes,                                    !- Apply Monday
  Yes,                                    !- Apply Tuesday
  Yes,                                    !- Apply Wednesday
  Yes,                                    !- Apply Thursday
  Yes,                                    !- Apply Friday
  ,                                       !- Apply Saturday
  DateRange,                              !- Date Specification Type
  9,                                      !- Start Month
  1,                                      !- Start Day
  12,                                     !- End Month
  31;                                     !- End Day

OS:Schedule:Day,
  {f8c871ad-6efa-448f-8a1d-17035bd1f998}, !- Handle
  SchoolSecondary BLDG_OCC_SCH_Auditorium Wkdy|SmrDsn Day 2, !- Name
  {8eeaf701-6cf8-4a97-aabd-b3810bd8cb29}, !- Schedule Type Limits Name
  ,                                       !- Interpolate to Timestep
  8,                                      !- Hour 1
  0,                                      !- Minute 1
  0,                                      !- Value Until Time 1
  15,                                     !- Hour 2
  0,                                      !- Minute 2
  0.25,                                   !- Value Until Time 2
  20,                                     !- Hour 3
  0,                                      !- Minute 3
  0.95,                                   !- Value Until Time 3
  24,                                     !- Hour 4
  0,                                      !- Minute 4
  0;                                      !- Value Until Time 4

OS:Schedule:Rule,
  {6edfa4bd-aa8f-4ebd-826a-34c665969f20}, !- Handle
  Schedule Rule 5,                        !- Name
  {9c797de9-4523-4db5-964a-d6836923ff7a}, !- Schedule Ruleset Name
  1,                                      !- Rule Order
  {39002310-2619-44a8-bf3f-6650b63c0fef}, !- Day Schedule Name
  Yes,                                    !- Apply Sunday
  ,                                       !- Apply Monday
  ,                                       !- Apply Tuesday
  ,                                       !- Apply Wednesday
  ,                                       !- Apply Thursday
  ,                                       !- Apply Friday
  Yes,                                    !- Apply Saturday
  DateRange,                              !- Date Specification Type
  1,                                      !- Start Month
  1,                                      !- Start Day
  6,                                      !- End Month
  30;                                     !- End Day

OS:Schedule:Day,
  {39002310-2619-44a8-bf3f-6650b63c0fef}, !- Handle
  SchoolSecondary BLDG_OCC_SCH_Auditorium Wknd Day, !- Name
  {8eeaf701-6cf8-4a97-aabd-b3810bd8cb29}, !- Schedule Type Limits Name
  ,                                       !- Interpolate to Timestep
  24,                                     !- Hour 1
  0,                                      !- Minute 1
  0;                                      !- Value Until Time 1

OS:Schedule:Rule,
  {4c7f03c1-5fa5-4dcb-8785-49e621fa80fe}, !- Handle
  Schedule Rule 6,                        !- Name
  {9c797de9-4523-4db5-964a-d6836923ff7a}, !- Schedule Ruleset Name
  0,                                      !- Rule Order
  {e6a2f84f-7bb7-4664-b69c-5a0e336b782a}, !- Day Schedule Name
  Yes,                                    !- Apply Sunday
  ,                                       !- Apply Monday
  ,                                       !- Apply Tuesday
  ,                                       !- Apply Wednesday
  ,                                       !- Apply Thursday
  ,                                       !- Apply Friday
  Yes,                                    !- Apply Saturday
  DateRange,                              !- Date Specification Type
  7,                                      !- Start Month
  1,                                      !- Start Day
  9,                                      !- End Month
  1;                                      !- End Day

OS:Schedule:Day,
  {e6a2f84f-7bb7-4664-b69c-5a0e336b782a}, !- Handle
  SchoolSecondary BLDG_OCC_SCH_Auditorium Wknd Day 1, !- Name
  {8eeaf701-6cf8-4a97-aabd-b3810bd8cb29}, !- Schedule Type Limits Name
  ,                                       !- Interpolate to Timestep
  24,                                     !- Hour 1
  0,                                      !- Minute 1
  0;                                      !- Value Until Time 1

OS:Schedule:Ruleset,
  {eb0b36a0-7a21-4b7d-a70c-d92e77c97f75}, !- Handle
  SchoolSecondary ACTIVITY_SCH,           !- Name
  {46c31c34-414c-44c9-bd10-40feaa23afb3}, !- Schedule Type Limits Name
  {d149e17a-fe08-4f15-ab0e-d105e09025c1}, !- Default Day Schedule Name
  {4e35a720-8aaf-4b91-bb22-31894d405eb4}, !- Summer Design Day Schedule Name
  {afd73a1a-8085-4e96-bee5-24f45d983a9b}; !- Winter Design Day Schedule Name

OS:Schedule:Day,
  {d149e17a-fe08-4f15-ab0e-d105e09025c1}, !- Handle
  SchoolSecondary ACTIVITY_SCH Default,   !- Name
  {46c31c34-414c-44c9-bd10-40feaa23afb3}, !- Schedule Type Limits Name
  ,                                       !- Interpolate to Timestep
  24,                                     !- Hour 1
  0,                                      !- Minute 1
  120;                                    !- Value Until Time 1

OS:Schedule:Day,
  {80de92a5-3d3e-41c5-8f79-e59adb7703a9}, !- Handle
  Schedule Day 6,                         !- Name
  ,                                       !- Schedule Type Limits Name
  ,                                       !- Interpolate to Timestep
  24,                                     !- Hour 1
  0,                                      !- Minute 1
  0;                                      !- Value Until Time 1

OS:Schedule:Day,
  {afd73a1a-8085-4e96-bee5-24f45d983a9b}, !- Handle
  SchoolSecondary ACTIVITY_SCH Winter Design Day, !- Name
  {46c31c34-414c-44c9-bd10-40feaa23afb3}, !- Schedule Type Limits Name
  ,                                       !- Interpolate to Timestep
  24,                                     !- Hour 1
  0,                                      !- Minute 1
  120;                                    !- Value Until Time 1

OS:Schedule:Day,
  {f82b4797-510e-476d-9ab7-9cf86b3c1ab1}, !- Handle
  Schedule Day 7,                         !- Name
  ,                                       !- Schedule Type Limits Name
  ,                                       !- Interpolate to Timestep
  24,                                     !- Hour 1
  0,                                      !- Minute 1
  0;                                      !- Value Until Time 1

OS:Schedule:Day,
  {4e35a720-8aaf-4b91-bb22-31894d405eb4}, !- Handle
  SchoolSecondary ACTIVITY_SCH Summer Design Day, !- Name
  {46c31c34-414c-44c9-bd10-40feaa23afb3}, !- Schedule Type Limits Name
  ,                                       !- Interpolate to Timestep
  24,                                     !- Hour 1
  0,                                      !- Minute 1
  120;                                    !- Value Until Time 1

OS:ScheduleTypeLimits,
  {46c31c34-414c-44c9-bd10-40feaa23afb3}, !- Handle
  ActivityLevel,                          !- Name
  0,                                      !- Lower Limit Value
  ,                                       !- Upper Limit Value
  Continuous,                             !- Numeric Type
  ActivityLevel;                          !- Unit Type

OS:Schedule:Ruleset,
  {ea98462a-b323-41af-854a-64d2044b61f0}, !- Handle
  SchoolSecondary BLDG_LIGHT_SCH_2013,    !- Name
  {8eeaf701-6cf8-4a97-aabd-b3810bd8cb29}, !- Schedule Type Limits Name
  {7247208a-1f5d-41a9-a8d4-c6467cc6ad3c}, !- Default Day Schedule Name
  {673485ea-cec2-4629-8c4c-0f211921ed5c}, !- Summer Design Day Schedule Name
  {24231f82-8d10-44c1-8b8d-dbc153faefcd}; !- Winter Design Day Schedule Name

OS:Schedule:Day,
  {7247208a-1f5d-41a9-a8d4-c6467cc6ad3c}, !- Handle
  SchoolSecondary BLDG_LIGHT_SCH_2013 Default, !- Name
  {8eeaf701-6cf8-4a97-aabd-b3810bd8cb29}, !- Schedule Type Limits Name
  ,                                       !- Interpolate to Timestep
  24,                                     !- Hour 1
  0,                                      !- Minute 1
  0.1773;                                 !- Value Until Time 1

OS:Schedule:Day,
  {4efab7f3-6582-49a9-9623-459085b3dbaf}, !- Handle
  Schedule Day 8,                         !- Name
  ,                                       !- Schedule Type Limits Name